
     RDKit          3D

 23 23  0  0  0  0  0  0  0  0999 V2000
   -2.2547    1.2954   -1.5630 O   0  0  0  0  0  0  0  0  0  0  0  0
   -2.1997    0.8585   -0.2807 C   0  0  0  0  0  0  0  0  0  0  0  0
   -2.2376    1.7357    0.6449 O   0  0  0  0  0  0  0  0  0  0  0  0
   -2.0983   -0.5682    0.1483 C   0  0  1  0  0  0  0  0  0  0  0  0
   -2.0400   -1.4514   -0.9750 N   0  0  0  0  0  0  0  0  0  0  0  0
   -1.0799   -0.7228    1.1759 C   0  0  0  0  0  0  0  0  0  0  0  0
    0.2874   -0.3611    0.8799 C   0  0  0  0  0  0  0  0  0  0  0  0
    0.9173    0.1292   -0.2300 C   0  0  0  0  0  0  0  0  0  0  0  0
    2.2253    0.3024    0.0105 N   0  0  0  0  0  0  0  0  0  0  0  0
    2.4082   -0.0847    1.2830 C   0  0  0  0  0  0  0  0  0  0  0  0
    1.2689   -0.4826    1.8176 N   0  0  0  0  0  0  0  0  0  0  0  0
    3.2716    0.7869   -0.8392 C   0  0  0  0  0  0  0  0  0  0  0  0
   -2.6781    2.1549   -1.8216 H   0  0  0  0  0  0  0  0  0  0  0  0
   -3.1027   -0.7759    0.6344 H   0  0  0  0  0  0  0  0  0  0  0  0
   -1.7957   -2.3975   -0.6755 H   0  0  0  0  0  0  0  0  0  0  0  0
   -2.9878   -1.4801   -1.4159 H   0  0  0  0  0  0  0  0  0  0  0  0
   -1.4028   -0.1367    2.0874 H   0  0  0  0  0  0  0  0  0  0  0  0
   -1.0780   -1.7905    1.5500 H   0  0  0  0  0  0  0  0  0  0  0  0
    0.4418    0.3415   -1.1490 H   0  0  0  0  0  0  0  0  0  0  0  0
    3.3671   -0.0755    1.8140 H   0  0  0  0  0  0  0  0  0  0  0  0
    3.0933    0.6072   -1.9126 H   0  0  0  0  0  0  0  0  0  0  0  0
    4.2232    0.2572   -0.5814 H   0  0  0  0  0  0  0  0  0  0  0  0
    3.4512    1.8580   -0.6018 H   0  0  0  0  0  0  0  0  0  0  0  0
  1  2  1  0
  2  3  2  0
  2  4  1  0
  4  5  1  0
  4  6  1  0
  6  7  1  0
  7  8  2  0
  8  9  1  0
  9 10  1  0
 10 11  2  0
  9 12  1  0
 11  7  1  0
  1 13  1  0
  4 14  1  1
  5 15  1  0
  5 16  1  0
  6 17  1  0
  6 18  1  0
  8 19  1  0
 10 20  1  0
 12 21  1  0
 12 22  1  0
 12 23  1  0
M  END

