92105
     RDKit          3D

 23 23  0  0  1  0  0  0  0  0999 V2000
   -3.6675    1.7003   -0.1460 O   0  0  0  0  0  0  0  0  0  0  0  0
   -4.2247   -0.5257    0.0342 O   0  0  0  0  0  0  0  0  0  0  0  0
    2.5146   -0.1122   -0.1542 N   0  0  0  0  0  0  0  0  0  0  0  0
    0.8845   -1.3083   -0.9849 N   0  0  0  0  0  0  0  0  0  0  0  0
   -1.8256   -1.4382    0.5253 N   0  0  0  0  0  0  0  0  0  0  0  0
   -1.0686    0.3112   -0.9022 C   0  0  0  0  0  0  0  0  0  0  0  0
   -1.9131   -0.0005    0.3378 C   0  0  0  0  0  0  0  0  0  0  0  0
    0.3405   -0.1063   -0.6967 C   0  0  0  0  0  0  0  0  0  0  0  0
    1.3935    0.6317   -0.1723 C   0  0  0  0  0  0  0  0  0  0  0  0
    2.1890   -1.3027   -0.6561 C   0  0  0  0  0  0  0  0  0  0  0  0
   -3.3318    0.3499    0.0703 C   0  0  0  0  0  0  0  0  0  0  0  0
    3.8038    0.3614    0.3359 C   0  0  0  0  0  0  0  0  0  0  0  0
   -3.0977    2.3918    0.3458 H   0  0  0  0  0  0  0  0  0  0  0  0
   -2.5790   -1.9572    0.0495 H   0  0  0  0  0  0  0  0  0  0  0  0
   -1.6940   -1.6997    1.5261 H   0  0  0  0  0  0  0  0  0  0  0  0
   -1.1512    1.4126   -1.0890 H   0  0  0  0  0  0  0  0  0  0  0  0
   -1.5094   -0.1835   -1.7917 H   0  0  0  0  0  0  0  0  0  0  0  0
   -1.5903    0.5790    1.2030 H   0  0  0  0  0  0  0  0  0  0  0  0
    1.2681    1.6630    0.1604 H   0  0  0  0  0  0  0  0  0  0  0  0
    2.9142   -2.1198   -0.7630 H   0  0  0  0  0  0  0  0  0  0  0  0
    3.8206    1.4543    0.3295 H   0  0  0  0  0  0  0  0  0  0  0  0
    4.6458   -0.0766   -0.2663 H   0  0  0  0  0  0  0  0  0  0  0  0
    3.8783   -0.0245    1.3875 H   0  0  0  0  0  0  0  0  0  0  0  0
  1 11  1  0
  2 11  2  0
  3  9  1  0
  3 10  1  0
  3 12  1  0
  4  8  1  0
  4 10  2  0
  5  7  1  0
  6  7  1  0
  6  8  1  0
  7 11  1  0
  8  9  2  0
  1 13  1  0
  5 14  1  0
  5 15  1  0
  6 16  1  0
  6 17  1  0
  7 18  1  0
  9 19  1  0
 10 20  1  0
 12 21  1  0
 12 22  1  0
 12 23  1  0
M  END

